Version 4
SHEET 1 1400 968
WIRE 400 -448 368 -448
WIRE 560 -448 480 -448
WIRE 720 -448 560 -448
WIRE 880 -448 720 -448
WIRE 1104 -448 880 -448
WIRE 1152 -448 1104 -448
WIRE 560 -416 560 -448
WIRE 368 -368 368 -448
WIRE 496 -368 368 -368
WIRE 880 -368 880 -448
WIRE 1104 -368 1104 -448
WIRE 368 -336 368 -368
WIRE 816 -320 560 -320
WIRE 720 -272 720 -448
WIRE 560 -224 560 -320
WIRE 656 -224 560 -224
WIRE 368 -160 368 -272
WIRE 560 -144 560 -224
WIRE 720 -144 720 -176
WIRE 880 -144 880 -272
WIRE 368 -32 368 -80
WIRE 368 -32 320 -32
WIRE 416 -32 368 -32
WIRE 560 -32 560 -64
WIRE 560 -32 496 -32
WIRE 720 -32 720 -64
WIRE 720 -32 560 -32
WIRE 880 -32 880 -64
WIRE 880 -32 720 -32
WIRE 1040 -32 880 -32
WIRE 1040 -16 1040 -32
WIRE 720 0 720 -32
WIRE 880 0 880 -32
WIRE 256 64 256 -32
WIRE 368 96 368 -32
WIRE 592 112 560 112
WIRE 720 112 720 80
WIRE 720 112 672 112
WIRE 1040 112 1040 48
WIRE 1104 112 1040 112
WIRE 560 160 560 112
WIRE 1040 160 1040 112
WIRE 880 192 880 80
WIRE 368 208 368 176
WIRE 496 208 368 208
WIRE 368 240 368 208
WIRE 816 240 624 240
WIRE 720 288 720 112
WIRE 560 336 560 256
WIRE 624 336 624 240
WIRE 624 336 560 336
WIRE 656 336 624 336
WIRE 368 352 368 304
WIRE 560 400 560 336
WIRE 368 512 368 432
WIRE 560 512 560 480
WIRE 560 512 368 512
WIRE 656 512 560 512
WIRE 720 512 720 384
WIRE 720 512 656 512
WIRE 880 512 880 288
WIRE 880 512 720 512
WIRE 1040 512 1040 240
WIRE 1040 512 880 512
WIRE 656 544 656 512
FLAG 1152 -448 +Vcc
FLAG 656 544 0
FLAG 1104 -288 0
FLAG 256 144 0
FLAG 1104 112 V_out
SYMBOL npn 496 -416 R0
SYMATTR InstName Q2
SYMATTR Value 2N3904
SYMBOL npn 816 -368 R0
SYMATTR InstName Q1
SYMATTR Value 2N3055
SYMBOL npn 656 -272 R0
SYMATTR InstName Q3
SYMATTR Value 2N3055
SYMBOL npn 816 192 R0
SYMATTR InstName Q4
SYMATTR Value 2N3055
SYMBOL npn 656 288 R0
SYMATTR InstName Q5
SYMATTR Value 2N3055
SYMBOL diode 352 -336 R0
SYMATTR InstName D1
SYMATTR Value 1N4148
SYMBOL diode 352 240 R0
SYMATTR InstName D2
SYMATTR Value 1N4148
SYMBOL polcap 320 -48 R90
WINDOW 0 0 32 VBottom 2
WINDOW 3 32 32 VTop 2
SYMATTR InstName C1
SYMATTR Value 1µ
SYMATTR Description Capacitor
SYMATTR Type cap
SYMATTR SpiceLine V=50 Irms=12m Rser=22 Lser=0 mfg="Nichicon" pn="UPR1H010MAH" type="Al electrolytic"
SYMBOL polcap 1024 -16 R0
WINDOW 3 24 56 Left 2
SYMATTR Value 4700µ
SYMATTR InstName C2
SYMATTR Description Capacitor
SYMATTR Type cap
SYMATTR SpiceLine V=25 Irms=2.96 Rser=0.018 Lser=0 mfg="Nichicon" pn="UPL1E472MRH" type="Al electrolytic"
SYMBOL res 352 -176 R0
SYMATTR InstName R1
SYMATTR Value 47R
SYMBOL res 352 80 R0
SYMATTR InstName R2
SYMATTR Value 47R
SYMBOL res 352 336 R0
SYMATTR InstName R3
SYMATTR Value 2.2k
SYMBOL res 544 -160 R0
SYMATTR InstName R4
SYMATTR Value 100R
SYMBOL res 544 384 R0
SYMATTR InstName R5
SYMATTR Value 47R
SYMBOL res 864 -16 R0
SYMATTR InstName R6
SYMATTR Value 0.33R
SYMBOL res 704 -160 R0
SYMATTR InstName R7
SYMATTR Value 0.33R
SYMBOL res 864 -160 R0
SYMATTR InstName R8
SYMATTR Value 0.33R
SYMBOL res 704 -16 R0
SYMATTR InstName R9
SYMATTR Value 0.33R
SYMBOL res 496 -464 R90
WINDOW 0 0 56 VBottom 2
WINDOW 3 32 56 VTop 2
SYMATTR InstName R10
SYMATTR Value 2.2k
SYMBOL res 512 -48 R90
WINDOW 0 0 56 VBottom 2
WINDOW 3 32 56 VTop 2
SYMATTR InstName R11
SYMATTR Value 470R
SYMBOL res 688 96 R90
WINDOW 0 0 56 VBottom 2
WINDOW 3 36 51 VTop 2
SYMATTR InstName R12
SYMATTR Value 15R
SYMBOL pnp 496 256 M180
SYMATTR InstName Q6
SYMATTR Value 2N3906
SYMBOL voltage 1104 -384 R0
WINDOW 123 0 0 Left 2
WINDOW 39 0 0 Left 2
SYMATTR InstName Vcc
SYMATTR Value 80
SYMBOL voltage 256 48 R0
WINDOW 3 -196 54 Left 2
WINDOW 123 0 0 Left 2
WINDOW 39 0 0 Left 2
SYMATTR Value SINE(0 1 3k)
SYMATTR InstName V_in
SYMBOL res 1024 144 R0
SYMATTR InstName Carga
SYMATTR Value 8R
TEXT 56 568 Left 2 !.tran 0 2s 0 0.01
